<?xml version="1.0" encoding="UTF-8"?>

<!-- generated on 2025-11-20 11:07:03 by Eclipse SUMO netedit Version 1.18.0
<configuration xmlns:xsi="http://www.w3.org/2001/XMLSchema-instance" xsi:noNamespaceSchemaLocation="http://sumo.dlr.de/xsd/neteditConfiguration.xsd">

    <input>
        <sumo-net-file value="/home/thuan/ns-3/project/thuan.net.xml"/>
    </input>

    <output>
        <output-file value="/home/thuan/ns-3/project/thuan.net.xml"/>
    </output>

    <processing>
        <geometry.min-radius.fix.railways value="false"/>
        <geometry.max-grade.fix value="false"/>
        <offset.disable-normalization value="true"/>
        <lefthand value="0"/>
    </processing>

    <junctions>
        <no-turnarounds value="true"/>
        <junctions.corner-detail value="5"/>
        <junctions.limit-turn-speed value="5.50"/>
        <rectangular-lane-cut value="0"/>
    </junctions>

    <pedestrian>
        <walkingareas value="0"/>
    </pedestrian>

</configuration>
-->

<net version="1.16" junctionCornerDetail="5" limitTurnSpeed="5.50" xmlns:xsi="http://www.w3.org/2001/XMLSchema-instance" xsi:noNamespaceSchemaLocation="http://sumo.dlr.de/xsd/net_file.xsd">

    <location netOffset="-201468.81,-1778630.02" convBoundary="12.29,2.39,944.69,173.75" origBoundary="108.209744,16.069443,108.218642,16.071140" projParameter="+proj=utm +zone=49 +ellps=WGS84 +datum=WGS84 +units=m +no_defs"/>

    <type id="highway.primary" priority="12" numLanes="2" speed="27.78" disallow="tram rail_urban rail rail_electric rail_fast ship" oneway="0"/>
    <type id="highway.secondary" priority="11" numLanes="1" speed="27.78" disallow="tram rail_urban rail rail_electric rail_fast ship" oneway="0"/>

    <edge id=":420249146_0" function="internal">
        <lane id=":420249146_0_0" index="0" disallow="tram rail_urban rail rail_electric rail_fast ship" speed="3.65" length="4.67" shape="11.98,5.81 10.96,4.79 10.72,3.93 11.27,3.22 12.60,2.67"/>
    </edge>
    <edge id=":420249262_0" function="internal">
        <lane id=":420249262_0_0" index="0" disallow="tram rail_urban rail rail_electric rail_fast ship" speed="3.65" length="4.67" shape="794.34,154.50 795.32,155.56 795.53,156.43 794.95,157.12 793.60,157.62"/>
    </edge>
    <edge id=":6524986721_0" function="internal">
        <lane id=":6524986721_0_0" index="0" disallow="tram rail_urban rail rail_electric rail_fast ship" speed="3.66" length="4.64" shape="414.84,2.39 415.89,1.41 416.75,1.21 417.43,1.78 417.93,3.12"/>
    </edge>
    <edge id=":6524986723_0" function="internal">
        <lane id=":6524986723_0_0" index="0" disallow="tram rail_urban rail rail_electric rail_fast ship" speed="3.65" length="4.64" shape="382.98,169.49 381.95,170.48 381.09,170.69 380.40,170.13 379.89,168.80"/>
    </edge>
    <edge id=":cluster_420249144_6518482571_6518482574_6524986719_#2more_0" function="internal">
        <lane id=":cluster_420249144_6518482571_6518482574_6524986719_#2more_0_0" index="0" disallow="tram rail_urban rail rail_electric rail_fast ship" speed="7.89" length="13.12" shape="408.61,86.10 406.09,86.30 403.94,87.87 402.18,90.80 400.80,95.10"/>
    </edge>
    <edge id=":cluster_420249144_6518482571_6518482574_6524986719_#2more_1" function="internal">
        <lane id=":cluster_420249144_6518482571_6518482574_6524986719_#2more_1_0" index="0" disallow="tram rail_urban rail rail_electric rail_fast ship" speed="13.89" length="17.78" shape="408.61,86.10 391.11,82.84"/>
        <lane id=":cluster_420249144_6518482571_6518482574_6524986719_#2more_1_1" index="1" disallow="tram rail_urban rail rail_electric rail_fast ship" speed="13.89" length="17.78" shape="409.16,82.94 391.70,79.69"/>
    </edge>
    <edge id=":cluster_420249144_6518482571_6518482574_6524986719_#2more_3" function="internal">
        <lane id=":cluster_420249144_6518482571_6518482574_6524986719_#2more_3_0" index="0" disallow="tram rail_urban rail rail_electric rail_fast ship" speed="10.03" length="3.85" shape="409.16,82.94 405.58,81.55"/>
    </edge>
    <edge id=":cluster_420249144_6518482571_6518482574_6524986719_#2more_4" function="internal">
        <lane id=":cluster_420249144_6518482571_6518482574_6524986719_#2more_4_0" index="0" disallow="tram rail_urban rail rail_electric rail_fast ship" speed="3.65" length="1.44" shape="409.16,82.94 408.12,81.95"/>
    </edge>
    <edge id=":cluster_420249144_6518482571_6518482574_6524986719_#2more_18" function="internal">
        <lane id=":cluster_420249144_6518482571_6518482574_6524986719_#2more_18_0" index="0" disallow="tram rail_urban rail rail_electric rail_fast ship" speed="10.03" length="19.96" shape="405.58,81.55 404.03,80.95 400.92,77.11 399.83,71.43 400.75,63.91"/>
    </edge>
    <edge id=":cluster_420249144_6518482571_6518482574_6524986719_#2more_19" function="internal">
        <lane id=":cluster_420249144_6518482571_6518482574_6524986719_#2more_19_0" index="0" disallow="tram rail_urban rail rail_electric rail_fast ship" speed="3.65" length="3.23" shape="408.12,81.95 407.86,81.09 408.39,80.37 409.71,79.79"/>
    </edge>
    <edge id=":cluster_420249144_6518482571_6518482574_6524986719_#2more_5" function="internal">
        <lane id=":cluster_420249144_6518482571_6518482574_6524986719_#2more_5_0" index="0" disallow="tram rail_urban rail rail_electric rail_fast ship" speed="7.80" length="13.56" shape="406.30,65.18 405.81,69.80 406.31,73.26 407.80,75.53 410.27,76.64"/>
    </edge>
    <edge id=":cluster_420249144_6518482571_6518482574_6524986719_#2more_6" function="internal">
        <lane id=":cluster_420249144_6518482571_6518482574_6524986719_#2more_6_0" index="0" disallow="tram rail_urban rail rail_electric rail_fast ship" speed="27.78" length="30.42" shape="406.30,65.18 400.80,95.10"/>
    </edge>
    <edge id=":cluster_420249144_6518482571_6518482574_6524986719_#2more_7" function="internal">
        <lane id=":cluster_420249144_6518482571_6518482574_6524986719_#2more_7_0" index="0" disallow="tram rail_urban rail rail_electric rail_fast ship" speed="10.10" length="13.20" shape="406.30,65.18 404.21,72.34 401.09,77.15"/>
    </edge>
    <edge id=":cluster_420249144_6518482571_6518482574_6524986719_#2more_8" function="internal">
        <lane id=":cluster_420249144_6518482571_6518482574_6524986719_#2more_8_0" index="0" disallow="tram rail_urban rail rail_electric rail_fast ship" speed="4.53" length="4.84" shape="406.30,65.18 404.43,66.94 402.89,67.32 402.36,66.88"/>
    </edge>
    <edge id=":cluster_420249144_6518482571_6518482574_6524986719_#2more_20" function="internal">
        <lane id=":cluster_420249144_6518482571_6518482574_6524986719_#2more_20_0" index="0" disallow="tram rail_urban rail rail_electric rail_fast ship" speed="10.10" length="10.05" shape="401.09,77.15 396.92,79.60 391.70,79.69"/>
    </edge>
    <edge id=":cluster_420249144_6518482571_6518482574_6524986719_#2more_21" function="internal">
        <lane id=":cluster_420249144_6518482571_6518482574_6524986719_#2more_21_0" index="0" disallow="tram rail_urban rail rail_electric rail_fast ship" speed="4.53" length="3.47" shape="402.36,66.88 401.66,66.31 400.75,63.91"/>
    </edge>
    <edge id=":cluster_420249144_6518482571_6518482574_6524986719_#2more_9" function="internal">
        <lane id=":cluster_420249144_6518482571_6518482574_6524986719_#2more_9_0" index="0" disallow="tram rail_urban rail rail_electric rail_fast ship" speed="7.95" length="13.57" shape="392.90,73.40 395.43,73.20 397.58,71.55 399.36,68.45 400.75,63.91"/>
    </edge>
    <edge id=":cluster_420249144_6518482571_6518482574_6524986719_#2more_10" function="internal">
        <lane id=":cluster_420249144_6518482571_6518482574_6524986719_#2more_10_0" index="0" disallow="tram rail_urban rail rail_electric rail_fast ship" speed="13.89" length="17.69" shape="392.90,73.40 410.27,76.64"/>
        <lane id=":cluster_420249144_6518482571_6518482574_6524986719_#2more_10_1" index="1" disallow="tram rail_urban rail rail_electric rail_fast ship" speed="13.89" length="17.69" shape="392.30,76.55 409.71,79.79"/>
    </edge>
    <edge id=":cluster_420249144_6518482571_6518482574_6524986719_#2more_12" function="internal">
        <lane id=":cluster_420249144_6518482571_6518482574_6524986719_#2more_12_0" index="0" disallow="tram rail_urban rail rail_electric rail_fast ship" speed="9.96" length="3.77" shape="392.30,76.55 395.81,77.93"/>
    </edge>
    <edge id=":cluster_420249144_6518482571_6518482574_6524986719_#2more_13" function="internal">
        <lane id=":cluster_420249144_6518482571_6518482574_6524986719_#2more_13_0" index="0" disallow="tram rail_urban rail rail_electric rail_fast ship" speed="3.65" length="1.44" shape="392.30,76.55 393.33,77.56"/>
    </edge>
    <edge id=":cluster_420249144_6518482571_6518482574_6524986719_#2more_22" function="internal">
        <lane id=":cluster_420249144_6518482571_6518482574_6524986719_#2more_22_0" index="0" disallow="tram rail_urban rail rail_electric rail_fast ship" speed="9.96" length="19.61" shape="395.81,77.93 397.47,78.59 400.62,82.36 401.72,87.86 400.80,95.10"/>
    </edge>
    <edge id=":cluster_420249144_6518482571_6518482574_6524986719_#2more_23" function="internal">
        <lane id=":cluster_420249144_6518482571_6518482574_6524986719_#2more_23_0" index="0" disallow="tram rail_urban rail rail_electric rail_fast ship" speed="3.65" length="3.23" shape="393.33,77.56 393.57,78.42 393.03,79.13 391.70,79.69"/>
    </edge>
    <edge id=":cluster_420249144_6518482571_6518482574_6524986719_#2more_14" function="internal">
        <lane id=":cluster_420249144_6518482571_6518482574_6524986719_#2more_14_0" index="0" disallow="tram rail_urban rail rail_electric rail_fast ship" speed="7.73" length="13.34" shape="395.45,93.82 395.94,89.47 395.38,86.19 393.77,83.98 391.11,82.84"/>
    </edge>
    <edge id=":cluster_420249144_6518482571_6518482574_6524986719_#2more_15" function="internal">
        <lane id=":cluster_420249144_6518482571_6518482574_6524986719_#2more_15_0" index="0" disallow="tram rail_urban rail rail_electric rail_fast ship" speed="27.78" length="30.37" shape="395.45,93.82 400.75,63.91"/>
    </edge>
    <edge id=":cluster_420249144_6518482571_6518482574_6524986719_#2more_16" function="internal">
        <lane id=":cluster_420249144_6518482571_6518482574_6524986719_#2more_16_0" index="0" disallow="tram rail_urban rail rail_electric rail_fast ship" speed="10.05" length="12.39" shape="395.45,93.82 397.59,86.96 400.48,82.63"/>
    </edge>
    <edge id=":cluster_420249144_6518482571_6518482574_6524986719_#2more_17" function="internal">
        <lane id=":cluster_420249144_6518482571_6518482574_6524986719_#2more_17_0" index="0" disallow="tram rail_urban rail rail_electric rail_fast ship" speed="4.46" length="4.55" shape="395.45,93.82 397.27,92.13 398.77,91.79 399.18,92.13"/>
    </edge>
    <edge id=":cluster_420249144_6518482571_6518482574_6524986719_#2more_24" function="internal">
        <lane id=":cluster_420249144_6518482571_6518482574_6524986719_#2more_24_0" index="0" disallow="tram rail_urban rail rail_electric rail_fast ship" speed="10.05" length="10.05" shape="400.48,82.63 400.67,82.34 404.72,79.95 409.71,79.79"/>
    </edge>
    <edge id=":cluster_420249144_6518482571_6518482574_6524986719_#2more_25" function="internal">
        <lane id=":cluster_420249144_6518482571_6518482574_6524986719_#2more_25_0" index="0" disallow="tram rail_urban rail rail_electric rail_fast ship" speed="4.46" length="3.48" shape="399.18,92.13 399.94,92.78 400.80,95.10"/>
    </edge>

    <edge id="-408162778#3" from="420249146" to="cluster_420249144_6518482571_6518482574_6524986719_#2more" priority="12" type="highway.primary" shape="12.29,4.24 14.71,4.72 38.45,9.28 59.61,13.44 90.16,18.64 130.96,27.43 149.65,31.28 196.14,41.32 239.90,50.42 244.14,51.29 279.89,58.54 386.09,77.00 398.33,79.32">
        <lane id="-408162778#3_0" index="0" disallow="tram rail_urban rail rail_electric rail_fast ship" speed="13.89" length="386.86" shape="13.22,-0.47 15.63,0.01 39.37,4.57 60.48,8.72 91.07,13.93 131.95,22.73 150.64,26.58 197.14,36.62 240.88,45.72 245.10,46.59 280.78,53.82 386.95,72.28 392.90,73.40"/>
        <lane id="-408162778#3_1" index="1" disallow="tram rail_urban rail rail_electric rail_fast ship" speed="13.89" length="386.86" shape="12.60,2.67 15.02,3.15 38.76,7.71 59.90,11.87 90.46,17.07 131.29,25.86 149.98,29.71 196.47,39.75 240.23,48.85 244.46,49.72 280.19,56.97 386.38,75.43 392.30,76.55"/>
    </edge>
    <edge id="-610420095#5" from="cluster_420249144_6518482571_6518482574_6524986719_#2more" to="420249262" priority="12" type="highway.primary" shape="403.29,80.29 420.56,83.32 472.81,93.94 497.51,98.96 549.59,108.58 575.46,113.99 599.44,118.74 640.74,126.92 749.20,148.69 771.53,153.18 792.14,155.62 886.72,166.87 917.95,170.58 944.69,173.75 793.97,156.06">
        <lane id="-610420095#5_0" index="0" disallow="tram rail_urban rail rail_electric rail_fast ship" speed="13.89" length="391.99" shape="410.27,76.64 421.45,78.60 473.77,89.24 498.42,94.25 550.52,103.87 576.42,109.29 600.37,114.03 641.68,122.21 750.14,143.98 772.29,148.44 792.99,150.89 795.09,151.39"/>
        <lane id="-610420095#5_1" index="1" disallow="tram rail_urban rail rail_electric rail_fast ship" speed="13.89" length="391.99" shape="409.71,79.79 420.86,81.75 473.13,92.37 497.81,97.39 549.90,107.01 575.78,112.42 599.75,117.17 641.05,125.35 749.51,147.12 771.78,151.60 792.42,154.04 794.34,154.50"/>
    </edge>
    <edge id="408162778#1" from="cluster_420249144_6518482571_6518482574_6524986719_#2more" to="420249146" priority="12" type="highway.primary" shape="398.33,79.32 386.09,77.00 279.89,58.54 244.14,51.29 239.90,50.42 196.14,41.32 149.65,31.28 130.96,27.43 90.16,18.64 59.61,13.44 38.45,9.28 14.71,4.72 12.29,4.24">
        <lane id="408162778#1_0" index="0" disallow="tram rail_urban rail rail_electric rail_fast ship" speed="13.89" length="386.91" shape="391.11,82.84 385.23,81.72 279.00,63.26 243.18,55.99 238.93,55.12 195.14,46.02 148.66,35.98 129.97,32.13 89.25,23.35 58.74,18.16 37.53,13.99 13.80,9.43 11.36,8.95"/>
        <lane id="408162778#1_1" index="1" disallow="tram rail_urban rail rail_electric rail_fast ship" speed="13.89" length="386.91" shape="391.70,79.69 385.80,78.57 279.59,60.11 243.82,52.86 239.58,51.99 195.81,42.89 149.32,32.85 130.63,29.00 89.86,20.21 59.32,15.01 38.14,10.85 14.41,6.29 11.98,5.81"/>
    </edge>
    <edge id="610420095#0" from="420249262" to="cluster_420249144_6518482571_6518482574_6524986719_#2more" priority="12" type="highway.primary" shape="793.97,156.06 944.69,173.75 917.95,170.58 886.72,166.87 792.14,155.62 771.53,153.18 749.20,148.69 640.74,126.92 599.44,118.74 575.46,113.99 549.59,108.58 497.51,98.96 472.81,93.94 420.56,83.32 403.29,80.29">
        <lane id="610420095#0_0" index="0" disallow="tram rail_urban rail rail_electric rail_fast ship" speed="13.89" length="391.59" shape="792.85,160.73 791.29,160.35 770.77,157.92 748.26,153.40 639.80,131.63 598.51,123.45 574.50,118.69 548.66,113.29 496.60,103.67 471.85,98.64 419.67,88.04 408.61,86.10"/>
        <lane id="610420095#0_1" index="1" disallow="tram rail_urban rail rail_electric rail_fast ship" speed="13.89" length="391.59" shape="793.60,157.62 791.86,157.20 771.28,154.76 748.89,150.26 640.43,128.49 599.13,120.31 575.14,115.56 549.28,110.15 497.21,100.53 472.49,95.51 420.26,84.89 409.16,82.94"/>
    </edge>
    <edge id="694768221#0" from="6524986721" to="cluster_420249144_6518482571_6518482574_6524986719_#2more" priority="11" type="highway.secondary" spreadType="center" shape="417.98,2.86 406.33,65.01">
        <lane id="694768221#0_0" index="0" disallow="tram rail_urban rail rail_electric rail_fast ship" speed="27.78" length="63.14" shape="417.93,3.12 406.30,65.18"/>
    </edge>
    <edge id="694768221#3" from="cluster_420249144_6518482571_6518482574_6524986719_#2more" to="6524986723" priority="11" type="highway.secondary" spreadType="center" shape="400.80,95.10 382.96,169.59">
        <lane id="694768221#3_0" index="0" disallow="tram rail_urban rail rail_electric rail_fast ship" speed="27.78" length="76.50" shape="400.80,95.10 382.98,169.49"/>
    </edge>
    <edge id="694768222#0" from="6524986723" to="cluster_420249144_6518482571_6518482574_6524986719_#2more" priority="11" type="highway.secondary" spreadType="center" shape="379.83,169.07 395.41,94.03">
        <lane id="694768222#0_0" index="0" disallow="tram rail_urban rail rail_electric rail_fast ship" speed="27.78" length="76.58" shape="379.89,168.80 395.45,93.82"/>
    </edge>
    <edge id="694768222#3" from="cluster_420249144_6518482571_6518482574_6524986719_#2more" to="6524986721" priority="11" type="highway.secondary" spreadType="center" shape="400.75,63.91 414.84,2.39">
        <lane id="694768222#3_0" index="0" disallow="tram rail_urban rail rail_electric rail_fast ship" speed="27.78" length="63.11" shape="400.75,63.91 414.84,2.39"/>
    </edge>

    <tlLogic id="cluster_420249144_6518482571_6518482574_6524986719_#2more" type="static" programID="0" offset="0">
        <phase duration="39" state="GGGggrrrrGGGggrrrr"/>
        <phase duration="6"  state="yyyyyrrrryyyyyrrrr"/>
        <phase duration="39" state="rrrrrGGggrrrrrGGgg"/>
        <phase duration="6"  state="rrrrryyyyrrrrryyyy"/>
    </tlLogic>

    <junction id="420249146" type="priority" x="12.29" y="4.24" incLanes="408162778#1_0 408162778#1_1" intLanes=":420249146_0_0" shape="12.29,4.24 11.05,10.52 12.29,4.24">
        <request index="0" response="0" foes="0" cont="0"/>
    </junction>
    <junction id="420249262" type="priority" x="793.97" y="156.06" incLanes="-610420095#5_0 -610420095#5_1" intLanes=":420249262_0_0" shape="793.97,156.06 795.47,149.84 793.97,156.06">
        <request index="0" response="0" foes="0" cont="0"/>
    </junction>
    <junction id="6524986721" type="priority" x="416.38" y="2.83" incLanes="694768222#3_0" intLanes=":6524986721_0_0" shape="416.36,2.83 419.50,3.42 413.26,2.12">
        <request index="0" response="0" foes="0" cont="0"/>
    </junction>
    <junction id="6524986723" type="priority" x="381.43" y="169.12" incLanes="694768221#3_0" intLanes=":6524986723_0_0" shape="381.45,169.12 378.32,168.47 384.54,169.86">
        <request index="0" response="0" foes="0" cont="0"/>
    </junction>
    <junction id="cluster_420249144_6518482571_6518482574_6524986719_#2more" type="traffic_light" x="400.82" y="79.61" incLanes="610420095#0_0 610420095#0_1 694768221#0_0 -408162778#3_0 -408162778#3_1 694768222#0_0" intLanes=":cluster_420249144_6518482571_6518482574_6524986719_#2more_0_0 :cluster_420249144_6518482571_6518482574_6524986719_#2more_1_0 :cluster_420249144_6518482571_6518482574_6524986719_#2more_1_1 :cluster_420249144_6518482571_6518482574_6524986719_#2more_18_0 :cluster_420249144_6518482571_6518482574_6524986719_#2more_19_0 :cluster_420249144_6518482571_6518482574_6524986719_#2more_5_0 :cluster_420249144_6518482571_6518482574_6524986719_#2more_6_0 :cluster_420249144_6518482571_6518482574_6524986719_#2more_20_0 :cluster_420249144_6518482571_6518482574_6524986719_#2more_21_0 :cluster_420249144_6518482571_6518482574_6524986719_#2more_9_0 :cluster_420249144_6518482571_6518482574_6524986719_#2more_10_0 :cluster_420249144_6518482571_6518482574_6524986719_#2more_10_1 :cluster_420249144_6518482571_6518482574_6524986719_#2more_22_0 :cluster_420249144_6518482571_6518482574_6524986719_#2more_23_0 :cluster_420249144_6518482571_6518482574_6524986719_#2more_14_0 :cluster_420249144_6518482571_6518482574_6524986719_#2more_15_0 :cluster_420249144_6518482571_6518482574_6524986719_#2more_24_0 :cluster_420249144_6518482571_6518482574_6524986719_#2more_25_0" shape="408.33,87.67 410.54,75.06 408.32,73.67 407.71,72.30 407.43,70.49 407.48,68.24 407.86,65.54 399.19,63.55 398.45,66.29 397.61,68.48 396.66,70.13 395.61,71.24 394.45,71.81 393.19,71.83 390.81,84.41 393.28,85.82 393.97,87.12 394.30,88.83 394.28,90.94 393.90,93.45 402.36,95.47 403.09,92.90 403.92,90.83 404.87,89.28 405.91,88.23 407.07,87.70">
        <request index="0"  response="000000000000000000" foes="100001000001000000" cont="0"/>
        <request index="1"  response="010000000010000000" foes="011111000011000000" cont="0"/>
        <request index="2"  response="010000000010000000" foes="011111000011000000" cont="0"/>
        <request index="3"  response="010000111010000000" foes="011000111111000000" cont="1"/>
        <request index="4"  response="010000110000000000" foes="010000110000000000" cont="1"/>
        <request index="5"  response="000000110000000000" foes="000000110000000000" cont="0"/>
        <request index="6"  response="000001110000001111" foes="110001110000001111" cont="0"/>
        <request index="7"  response="001001110000001110" foes="001011110000001110" cont="1"/>
        <request index="8"  response="001000001000001000" foes="001000001000001000" cont="1"/>
        <request index="9"  response="000000000000000000" foes="001000000100001000" cont="0"/>
        <request index="10" response="010000000010000000" foes="011000000011111000" cont="0"/>
        <request index="11" response="010000000010000000" foes="011000000011111000" cont="0"/>
        <request index="12" response="010000000010000111" foes="111000000011000111" cont="1"/>
        <request index="13" response="000000000010000110" foes="000000000010000110" cont="1"/>
        <request index="14" response="000000000000000110" foes="000000000000000110" cont="0"/>
        <request index="15" response="000001111000001110" foes="000001111110001110" cont="0"/>
        <request index="16" response="000001110001001110" foes="000001110001011110" cont="1"/>
        <request index="17" response="000001000001000001" foes="000001000001000001" cont="1"/>
    </junction>

    <junction id=":cluster_420249144_6518482571_6518482574_6524986719_#2more_18_0" type="internal" x="405.58" y="81.55" incLanes=":cluster_420249144_6518482571_6518482574_6524986719_#2more_3_0 -408162778#3_0 -408162778#3_1" intLanes=":cluster_420249144_6518482571_6518482574_6524986719_#2more_6_0 :cluster_420249144_6518482571_6518482574_6524986719_#2more_7_0 :cluster_420249144_6518482571_6518482574_6524986719_#2more_8_0 :cluster_420249144_6518482571_6518482574_6524986719_#2more_9_0 :cluster_420249144_6518482571_6518482574_6524986719_#2more_10_0 :cluster_420249144_6518482571_6518482574_6524986719_#2more_10_1 :cluster_420249144_6518482571_6518482574_6524986719_#2more_15_0 :cluster_420249144_6518482571_6518482574_6524986719_#2more_16_0"/>
    <junction id=":cluster_420249144_6518482571_6518482574_6524986719_#2more_19_0" type="internal" x="408.12" y="81.95" incLanes=":cluster_420249144_6518482571_6518482574_6524986719_#2more_4_0 -408162778#3_0 -408162778#3_1 694768221#0_0 694768222#0_0" intLanes=":cluster_420249144_6518482571_6518482574_6524986719_#2more_5_0 :cluster_420249144_6518482571_6518482574_6524986719_#2more_10_0 :cluster_420249144_6518482571_6518482574_6524986719_#2more_10_1 :cluster_420249144_6518482571_6518482574_6524986719_#2more_16_0"/>
    <junction id=":cluster_420249144_6518482571_6518482574_6524986719_#2more_20_0" type="internal" x="401.09" y="77.15" incLanes=":cluster_420249144_6518482571_6518482574_6524986719_#2more_7_0 694768222#0_0" intLanes=":cluster_420249144_6518482571_6518482574_6524986719_#2more_1_0 :cluster_420249144_6518482571_6518482574_6524986719_#2more_1_1 :cluster_420249144_6518482571_6518482574_6524986719_#2more_3_0 :cluster_420249144_6518482571_6518482574_6524986719_#2more_10_0 :cluster_420249144_6518482571_6518482574_6524986719_#2more_10_1 :cluster_420249144_6518482571_6518482574_6524986719_#2more_12_0 :cluster_420249144_6518482571_6518482574_6524986719_#2more_13_0 :cluster_420249144_6518482571_6518482574_6524986719_#2more_14_0 :cluster_420249144_6518482571_6518482574_6524986719_#2more_15_0"/>
    <junction id=":cluster_420249144_6518482571_6518482574_6524986719_#2more_21_0" type="internal" x="402.36" y="66.88" incLanes=":cluster_420249144_6518482571_6518482574_6524986719_#2more_8_0 -408162778#3_0 610420095#0_1 694768222#0_0" intLanes=":cluster_420249144_6518482571_6518482574_6524986719_#2more_3_0 :cluster_420249144_6518482571_6518482574_6524986719_#2more_9_0 :cluster_420249144_6518482571_6518482574_6524986719_#2more_15_0"/>
    <junction id=":cluster_420249144_6518482571_6518482574_6524986719_#2more_22_0" type="internal" x="395.81" y="77.93" incLanes=":cluster_420249144_6518482571_6518482574_6524986719_#2more_12_0 610420095#0_0 610420095#0_1" intLanes=":cluster_420249144_6518482571_6518482574_6524986719_#2more_0_0 :cluster_420249144_6518482571_6518482574_6524986719_#2more_1_0 :cluster_420249144_6518482571_6518482574_6524986719_#2more_1_1 :cluster_420249144_6518482571_6518482574_6524986719_#2more_6_0 :cluster_420249144_6518482571_6518482574_6524986719_#2more_7_0 :cluster_420249144_6518482571_6518482574_6524986719_#2more_15_0 :cluster_420249144_6518482571_6518482574_6524986719_#2more_16_0 :cluster_420249144_6518482571_6518482574_6524986719_#2more_17_0"/>
    <junction id=":cluster_420249144_6518482571_6518482574_6524986719_#2more_23_0" type="internal" x="393.33" y="77.56" incLanes=":cluster_420249144_6518482571_6518482574_6524986719_#2more_13_0 610420095#0_0 610420095#0_1 694768221#0_0 694768222#0_0" intLanes=":cluster_420249144_6518482571_6518482574_6524986719_#2more_1_0 :cluster_420249144_6518482571_6518482574_6524986719_#2more_1_1 :cluster_420249144_6518482571_6518482574_6524986719_#2more_7_0 :cluster_420249144_6518482571_6518482574_6524986719_#2more_14_0"/>
    <junction id=":cluster_420249144_6518482571_6518482574_6524986719_#2more_24_0" type="internal" x="400.48" y="82.63" incLanes=":cluster_420249144_6518482571_6518482574_6524986719_#2more_16_0 694768221#0_0" intLanes=":cluster_420249144_6518482571_6518482574_6524986719_#2more_1_0 :cluster_420249144_6518482571_6518482574_6524986719_#2more_1_1 :cluster_420249144_6518482571_6518482574_6524986719_#2more_3_0 :cluster_420249144_6518482571_6518482574_6524986719_#2more_4_0 :cluster_420249144_6518482571_6518482574_6524986719_#2more_5_0 :cluster_420249144_6518482571_6518482574_6524986719_#2more_6_0 :cluster_420249144_6518482571_6518482574_6524986719_#2more_10_0 :cluster_420249144_6518482571_6518482574_6524986719_#2more_10_1 :cluster_420249144_6518482571_6518482574_6524986719_#2more_12_0"/>
    <junction id=":cluster_420249144_6518482571_6518482574_6524986719_#2more_25_0" type="internal" x="399.18" y="92.13" incLanes=":cluster_420249144_6518482571_6518482574_6524986719_#2more_17_0 -408162778#3_1 610420095#0_0 694768221#0_0" intLanes=":cluster_420249144_6518482571_6518482574_6524986719_#2more_0_0 :cluster_420249144_6518482571_6518482574_6524986719_#2more_6_0 :cluster_420249144_6518482571_6518482574_6524986719_#2more_12_0"/>

    <connection from="-408162778#3" to="694768222#3" fromLane="0" toLane="0" via=":cluster_420249144_6518482571_6518482574_6524986719_#2more_9_0" tl="cluster_420249144_6518482571_6518482574_6524986719_#2more" linkIndex="9" dir="r" state="O"/>
    <connection from="-408162778#3" to="-610420095#5" fromLane="0" toLane="0" via=":cluster_420249144_6518482571_6518482574_6524986719_#2more_10_0" tl="cluster_420249144_6518482571_6518482574_6524986719_#2more" linkIndex="10" dir="s" state="O"/>
    <connection from="-408162778#3" to="-610420095#5" fromLane="1" toLane="1" via=":cluster_420249144_6518482571_6518482574_6524986719_#2more_10_1" tl="cluster_420249144_6518482571_6518482574_6524986719_#2more" linkIndex="11" dir="s" state="O"/>
    <connection from="-408162778#3" to="694768221#3" fromLane="1" toLane="0" via=":cluster_420249144_6518482571_6518482574_6524986719_#2more_12_0" tl="cluster_420249144_6518482571_6518482574_6524986719_#2more" linkIndex="12" dir="l" state="o"/>
    <connection from="-408162778#3" to="408162778#1" fromLane="1" toLane="1" via=":cluster_420249144_6518482571_6518482574_6524986719_#2more_13_0" tl="cluster_420249144_6518482571_6518482574_6524986719_#2more" linkIndex="13" dir="t" state="o"/>
    <connection from="-610420095#5" to="610420095#0" fromLane="1" toLane="1" via=":420249262_0_0" dir="t" state="M"/>
    <connection from="408162778#1" to="-408162778#3" fromLane="1" toLane="1" via=":420249146_0_0" dir="t" state="M"/>
    <connection from="610420095#0" to="694768221#3" fromLane="0" toLane="0" via=":cluster_420249144_6518482571_6518482574_6524986719_#2more_0_0" tl="cluster_420249144_6518482571_6518482574_6524986719_#2more" linkIndex="0" dir="r" state="O"/>
    <connection from="610420095#0" to="408162778#1" fromLane="0" toLane="0" via=":cluster_420249144_6518482571_6518482574_6524986719_#2more_1_0" tl="cluster_420249144_6518482571_6518482574_6524986719_#2more" linkIndex="1" dir="s" state="O"/>
    <connection from="610420095#0" to="408162778#1" fromLane="1" toLane="1" via=":cluster_420249144_6518482571_6518482574_6524986719_#2more_1_1" tl="cluster_420249144_6518482571_6518482574_6524986719_#2more" linkIndex="2" dir="s" state="O"/>
    <connection from="610420095#0" to="694768222#3" fromLane="1" toLane="0" via=":cluster_420249144_6518482571_6518482574_6524986719_#2more_3_0" tl="cluster_420249144_6518482571_6518482574_6524986719_#2more" linkIndex="3" dir="l" state="o"/>
    <connection from="610420095#0" to="-610420095#5" fromLane="1" toLane="1" via=":cluster_420249144_6518482571_6518482574_6524986719_#2more_4_0" tl="cluster_420249144_6518482571_6518482574_6524986719_#2more" linkIndex="4" dir="t" state="o"/>
    <connection from="694768221#0" to="-610420095#5" fromLane="0" toLane="0" via=":cluster_420249144_6518482571_6518482574_6524986719_#2more_5_0" tl="cluster_420249144_6518482571_6518482574_6524986719_#2more" linkIndex="5" dir="r" state="o"/>
    <connection from="694768221#0" to="694768221#3" fromLane="0" toLane="0" via=":cluster_420249144_6518482571_6518482574_6524986719_#2more_6_0" tl="cluster_420249144_6518482571_6518482574_6524986719_#2more" linkIndex="6" dir="s" state="o"/>